Version 4.1
SHEET 1 880 680
WIRE 240 -64 224 -64
WIRE 240 0 240 -64
WIRE 144 48 64 48
WIRE 352 48 304 48
WIRE 448 48 352 48
WIRE 592 48 528 48
WIRE 720 48 592 48
WIRE 64 96 64 48
WIRE 352 96 352 48
WIRE 592 96 592 48
WIRE 720 96 720 48
WIRE 64 224 64 176
WIRE 128 224 64 224
WIRE 352 224 352 176
WIRE 352 224 128 224
WIRE 592 224 592 176
WIRE 592 224 352 224
WIRE 720 224 720 176
WIRE 720 224 592 224
WIRE 128 256 128 224
FLAG 352 48 n1
FLAG 592 48 n2
FLAG 128 256 0
FLAG 288 0 0
FLAG 144 -64 0
SYMBOL voltage 64 80 R0
SYMATTR InstName V1
SYMATTR Value 24
SYMBOL res 240 32 R90
WINDOW 0 0 56 VBottom 2
WINDOW 3 32 56 VTop 2
SYMATTR InstName RG
SYMATTR Value 12
SYMBOL res 368 192 R180
WINDOW 0 36 76 Left 2
WINDOW 3 36 40 Left 2
SYMATTR InstName R1
SYMATTR Value 6
SYMBOL res 544 32 R90
WINDOW 0 0 56 VBottom 2
WINDOW 3 32 56 VTop 2
SYMATTR InstName R2
SYMATTR Value 4
SYMBOL ind 576 80 R0
SYMATTR InstName L
SYMATTR Value 5m
SYMATTR SpiceLine Rser=1m
SYMBOL res 704 80 R0
SYMATTR InstName R3
SYMATTR Value 10
SYMBOL sw 320 48 R90
SYMATTR InstName S1
SYMBOL voltage 240 -64 R90
WINDOW 0 -32 56 VBottom 2
WINDOW 3 -46 -139 VTop 2
WINDOW 123 0 0 Left 0
WINDOW 39 0 0 Left 0
SYMATTR InstName VSW
SYMATTR Value PULSE(5 0 0 1n 1n 1m 10m 1)
TEXT 24 280 Left 2 !.tran 0 30m 10m
TEXT 256 -56 Left 2 !.model SW SW(Ron=1p Roff=1e12 Vt=5 Vh=0)
