Version 4.1
SHEET 1 1192 680
WIRE 384 144 304 144
WIRE 512 144 464 144
WIRE 560 144 512 144
WIRE 640 144 560 144
WIRE 784 144 720 144
WIRE 880 144 784 144
WIRE 1008 144 960 144
WIRE 304 208 304 144
WIRE 784 208 784 144
WIRE 1008 208 1008 144
WIRE 304 304 304 288
WIRE 304 304 288 304
WIRE 304 336 304 304
WIRE 512 336 304 336
WIRE 560 336 560 208
WIRE 560 336 512 336
WIRE 784 336 784 288
WIRE 784 336 560 336
WIRE 1008 336 1008 272
WIRE 1008 336 784 336
FLAG 576 176 0
FLAG 288 304 0
FLAG 304 144 n1
FLAG 512 144 n2
FLAG 784 144 n3
FLAG 1008 144 n4
FLAG 512 336 ref
SYMBOL voltage 304 192 R0
SYMATTR InstName V
SYMATTR Value 6.4
SYMBOL res 480 128 R90
WINDOW 0 0 56 VBottom 2
WINDOW 3 60 59 VBottom 2
SYMATTR InstName R1
SYMATTR Value 4
SYMBOL switch 560 176 M90
WINDOW 0 37 33 Bottom 2
SYMATTR InstName S
SYMBOL res 736 128 R90
WINDOW 0 0 56 VBottom 2
WINDOW 3 32 56 VTop 2
SYMATTR InstName R2
SYMATTR Value 6
SYMBOL res 800 304 R180
WINDOW 0 36 76 Left 2
WINDOW 3 36 40 Left 2
SYMATTR InstName R3
SYMATTR Value 30
SYMBOL res 864 160 R270
WINDOW 0 32 56 VTop 2
WINDOW 3 0 56 VBottom 2
SYMATTR InstName R4
SYMATTR Value 15
SYMBOL cap 992 208 R0
SYMATTR InstName C
SYMATTR Value 25m
TEXT 272 352 Left 2 !.tran 4
TEXT 272 376 Left 2 !.param swVo=0 swVon=5 swTd=0 swTon=40\n.meas TRAN Vto FIND V(n4)
TEXT 288 48 Left 2 ;RESULTS:\nvC(0)=4.80000019073 V at 0
