Version 4.1
SHEET 1 924 680
WIRE 128 48 128 32
WIRE 128 64 -16 64
WIRE 288 64 192 64
WIRE 576 64 464 64
WIRE 720 64 576 64
WIRE 848 64 720 64
WIRE -16 128 -16 64
WIRE 288 128 288 64
WIRE 464 128 464 64
WIRE 576 128 576 64
WIRE 720 128 720 64
WIRE 848 128 848 64
WIRE -16 256 -16 208
WIRE 288 256 288 208
WIRE 288 256 -16 256
WIRE 464 256 464 208
WIRE 464 256 288 256
WIRE 576 256 576 208
WIRE 576 256 464 256
WIRE 720 256 720 208
WIRE 720 256 576 256
WIRE 848 256 848 192
WIRE 848 256 720 256
WIRE -16 272 -16 256
FLAG 128 32 0
FLAG -16 272 0
FLAG 288 64 n1
FLAG 464 64 n2
FLAG 576 64 n3
FLAG 720 64 n4
FLAG 848 64 n5
SYMBOL voltage -16 112 R0
SYMATTR InstName V
SYMATTR Value 24
SYMBOL switch 160 64 R0
SYMATTR InstName S
SYMBOL res 272 112 R0
SYMATTR InstName R1
SYMATTR Value 4
SYMBOL res 560 112 R0
SYMATTR InstName R2
SYMATTR Value 3
SYMBOL res 704 112 R0
SYMATTR InstName R3
SYMATTR Value 6
SYMBOL cap 832 128 R0
SYMATTR InstName C
SYMATTR Value 125m
SYMBOL bi 464 128 R0
WINDOW 3 -134 -21 Left 2
SYMATTR Value I=0.5*I(R1)
SYMATTR InstName IG
TEXT 200 -24 Left 2 !.param swVo=0 swVon=5 swTd=0 swTon=99999\n.meas TRAN v05 FIND V(n5) at=0.5\n.meas TRAN vf FIND V(n5) at=5
TEXT 0 -24 Left 2 !.tran 5
TEXT 16 288 Left 2 ;RESULTS\nVC(0.5) =-5.18800753311 V at 0.5\nVCf =-6.0 V at 5
