*
VG1 A 0 1
VG2 E C 3
VG3 G H 5
R1 B A 1
R2 C B 1
R6 H E 1
R4 F 0 1
R5 G D 1
R3 0 D 1
IG2 E D 1
IG3 G F 2
IG1 D B 3
.op
.backanno
.end
